<?xml version="1.0" encoding="UTF-8"?>
<nodes>
    <!-- Center intersection -->
    <node id="C" x="0" y="0" type="traffic_light"/>

    <!-- Arms of the intersection -->
    <node id="N" x="0" y="100"/>
    <node id="S" x="0" y="-100"/>
    <node id="E" x="100" y="0"/>
    <node id="W" x="-100" y="0"/>
</nodes>
