<?xml version="1.0" encoding="UTF-8"?>

<!-- generated on 2026-03-30T02:26:45.389841+06:00 by Eclipse SUMO netconvert 1.26.0
<netconvertConfiguration xmlns:xsi="http://www.w3.org/2001/XMLSchema-instance" xsi:noNamespaceSchemaLocation="http://sumo.dlr.de/xsd/netconvertConfiguration.xsd">

    <input>
        <node-files value="intersection.nod.xml"/>
        <edge-files value="intersection.edg.xml"/>
    </input>

    <output>
        <output-file value="intersection.net.xml"/>
    </output>

    <tls_building>
        <tls.guess value="true"/>
    </tls_building>

    <pedestrian>
        <sidewalks.guess value="true"/>
        <crossings.guess value="true"/>
    </pedestrian>

</netconvertConfiguration>
-->

<net version="1.20" junctionCornerDetail="5" walkingareas="true" limitTurnSpeed="5.50" xmlns:xsi="http://www.w3.org/2001/XMLSchema-instance" xsi:noNamespaceSchemaLocation="http://sumo.dlr.de/xsd/net_file.xsd">

    <location netOffset="100.00,100.00" convBoundary="0.00,0.00,200.00,200.00" origBoundary="-100.00,-100.00,100.00,100.00" projParameter="!"/>

    <edge id=":C_0" function="internal">
        <lane id=":C_0_0" index="0" disallow="pedestrian" speed="6.51" length="4.75" shape="95.20,110.40 94.85,107.95 93.80,106.20 93.60,106.08"/>
    </edge>
    <edge id=":C_1" function="internal">
        <lane id=":C_1_0" index="0" disallow="pedestrian" speed="13.89" length="20.80" shape="95.20,110.40 95.20,89.60"/>
        <lane id=":C_1_1" index="1" disallow="pedestrian" speed="13.89" length="20.80" shape="98.40,110.40 98.40,89.60"/>
    </edge>
    <edge id=":C_3" function="internal">
        <lane id=":C_3_0" index="0" disallow="pedestrian" speed="9.26" length="5.01" shape="98.40,110.40 99.11,105.44"/>
    </edge>
    <edge id=":C_4" function="internal">
        <lane id=":C_4_0" index="0" disallow="pedestrian" speed="3.65" length="1.44" shape="98.40,110.40 99.20,109.20"/>
    </edge>
    <edge id=":C_20" function="internal">
        <lane id=":C_20_0" index="0" disallow="pedestrian" speed="6.51" length="4.28" shape="93.60,106.08 92.05,105.15 89.60,104.80"/>
    </edge>
    <edge id=":C_21" function="internal">
        <lane id=":C_21_0" index="0" disallow="pedestrian" speed="9.26" length="14.34" shape="99.11,105.44 99.15,105.15 101.40,101.40 105.15,99.15 110.40,98.40"/>
    </edge>
    <edge id=":C_22" function="internal">
        <lane id=":C_22_0" index="0" disallow="pedestrian" speed="3.65" length="3.23" shape="99.20,109.20 100.00,108.80 100.80,109.20 101.60,110.40"/>
    </edge>
    <edge id=":C_5" function="internal">
        <lane id=":C_5_0" index="0" disallow="pedestrian" speed="6.51" length="4.75" shape="110.40,104.80 107.95,105.15 106.20,106.20 106.08,106.40"/>
    </edge>
    <edge id=":C_6" function="internal">
        <lane id=":C_6_0" index="0" disallow="pedestrian" speed="13.89" length="20.80" shape="110.40,104.80 89.60,104.80"/>
        <lane id=":C_6_1" index="1" disallow="pedestrian" speed="13.89" length="20.80" shape="110.40,101.60 89.60,101.60"/>
    </edge>
    <edge id=":C_8" function="internal">
        <lane id=":C_8_0" index="0" disallow="pedestrian" speed="9.26" length="5.01" shape="110.40,101.60 105.44,100.89"/>
    </edge>
    <edge id=":C_9" function="internal">
        <lane id=":C_9_0" index="0" disallow="pedestrian" speed="3.65" length="1.44" shape="110.40,101.60 109.20,100.80"/>
    </edge>
    <edge id=":C_23" function="internal">
        <lane id=":C_23_0" index="0" disallow="pedestrian" speed="6.51" length="4.28" shape="106.08,106.40 105.15,107.95 104.80,110.40"/>
    </edge>
    <edge id=":C_24" function="internal">
        <lane id=":C_24_0" index="0" disallow="pedestrian" speed="9.26" length="14.34" shape="105.44,100.89 105.15,100.85 101.40,98.60 99.15,94.85 98.40,89.60"/>
    </edge>
    <edge id=":C_25" function="internal">
        <lane id=":C_25_0" index="0" disallow="pedestrian" speed="3.65" length="3.23" shape="109.20,100.80 108.80,100.00 109.20,99.20 110.40,98.40"/>
    </edge>
    <edge id=":C_10" function="internal">
        <lane id=":C_10_0" index="0" disallow="pedestrian" speed="6.51" length="4.75" shape="104.80,89.60 105.15,92.05 106.20,93.80 106.40,93.92"/>
    </edge>
    <edge id=":C_11" function="internal">
        <lane id=":C_11_0" index="0" disallow="pedestrian" speed="13.89" length="20.80" shape="104.80,89.60 104.80,110.40"/>
        <lane id=":C_11_1" index="1" disallow="pedestrian" speed="13.89" length="20.80" shape="101.60,89.60 101.60,110.40"/>
    </edge>
    <edge id=":C_13" function="internal">
        <lane id=":C_13_0" index="0" disallow="pedestrian" speed="9.26" length="5.01" shape="101.60,89.60 100.89,94.56"/>
    </edge>
    <edge id=":C_14" function="internal">
        <lane id=":C_14_0" index="0" disallow="pedestrian" speed="3.65" length="1.44" shape="101.60,89.60 100.80,90.80"/>
    </edge>
    <edge id=":C_26" function="internal">
        <lane id=":C_26_0" index="0" disallow="pedestrian" speed="6.51" length="4.28" shape="106.40,93.92 107.95,94.85 110.40,95.20"/>
    </edge>
    <edge id=":C_27" function="internal">
        <lane id=":C_27_0" index="0" disallow="pedestrian" speed="9.26" length="14.34" shape="100.89,94.56 100.85,94.85 98.60,98.60 94.85,100.85 89.60,101.60"/>
    </edge>
    <edge id=":C_28" function="internal">
        <lane id=":C_28_0" index="0" disallow="pedestrian" speed="3.65" length="3.23" shape="100.80,90.80 100.00,91.20 99.20,90.80 98.40,89.60"/>
    </edge>
    <edge id=":C_15" function="internal">
        <lane id=":C_15_0" index="0" disallow="pedestrian" speed="6.51" length="4.75" shape="89.60,95.20 92.05,94.85 93.80,93.80 93.92,93.60"/>
    </edge>
    <edge id=":C_16" function="internal">
        <lane id=":C_16_0" index="0" disallow="pedestrian" speed="13.89" length="20.80" shape="89.60,95.20 110.40,95.20"/>
        <lane id=":C_16_1" index="1" disallow="pedestrian" speed="13.89" length="20.80" shape="89.60,98.40 110.40,98.40"/>
    </edge>
    <edge id=":C_18" function="internal">
        <lane id=":C_18_0" index="0" disallow="pedestrian" speed="9.26" length="5.01" shape="89.60,98.40 94.56,99.11"/>
    </edge>
    <edge id=":C_19" function="internal">
        <lane id=":C_19_0" index="0" disallow="pedestrian" speed="3.65" length="1.44" shape="89.60,98.40 90.80,99.20"/>
    </edge>
    <edge id=":C_29" function="internal">
        <lane id=":C_29_0" index="0" disallow="pedestrian" speed="6.51" length="4.28" shape="93.92,93.60 94.85,92.05 95.20,89.60"/>
    </edge>
    <edge id=":C_30" function="internal">
        <lane id=":C_30_0" index="0" disallow="pedestrian" speed="9.26" length="14.34" shape="94.56,99.11 94.85,99.15 98.60,101.40 100.85,105.15 101.60,110.40"/>
    </edge>
    <edge id=":C_31" function="internal">
        <lane id=":C_31_0" index="0" disallow="pedestrian" speed="3.65" length="3.23" shape="90.80,99.20 91.20,100.00 90.80,100.80 89.60,101.60"/>
    </edge>
    <edge id=":C_c0" function="crossing" crossingEdges="CN NC">
        <lane id=":C_c0_0" index="0" allow="pedestrian" speed="2.78" length="12.80" width="4.00" shape="106.40,108.40 93.60,108.40" outlineShape="106.50,110.40 93.50,110.40 93.49,109.18 93.16,108.18 92.60,107.40 91.82,106.84 91.49,106.73 93.60,106.40 106.40,106.40 108.51,106.73 108.18,106.84 107.40,107.40 106.84,108.18 106.51,109.18"/>
    </edge>
    <edge id=":C_c1" function="crossing" crossingEdges="CE EC">
        <lane id=":C_c1_0" index="0" allow="pedestrian" speed="2.78" length="12.80" width="4.00" shape="108.40,93.60 108.40,106.40" outlineShape="110.40,93.50 110.40,106.50 109.18,106.51 108.18,106.84 107.40,107.40 106.84,108.18 106.73,108.51 106.40,106.40 106.40,93.60 106.73,91.49 106.84,91.82 107.40,92.60 108.18,93.16 109.18,93.49"/>
    </edge>
    <edge id=":C_c2" function="crossing" crossingEdges="CS SC">
        <lane id=":C_c2_0" index="0" allow="pedestrian" speed="2.78" length="12.80" width="4.00" shape="93.60,91.60 106.40,91.60" outlineShape="93.50,89.60 106.50,89.60 106.51,90.82 106.84,91.82 107.40,92.60 108.18,93.16 108.51,93.27 106.40,93.60 93.60,93.60 91.49,93.27 91.82,93.16 92.60,92.60 93.16,91.82 93.49,90.82"/>
    </edge>
    <edge id=":C_c3" function="crossing" crossingEdges="CW WC">
        <lane id=":C_c3_0" index="0" allow="pedestrian" speed="2.78" length="12.80" width="4.00" shape="91.60,106.40 91.60,93.60" outlineShape="89.60,106.50 89.60,93.50 90.82,93.49 91.82,93.16 92.60,92.60 93.16,91.82 93.27,91.49 93.60,93.60 93.60,106.40 93.27,108.51 93.16,108.18 92.60,107.40 91.82,106.84 90.82,106.51"/>
    </edge>
    <edge id=":C_w0" function="walkingarea">
        <lane id=":C_w0_0" index="0" allow="pedestrian" speed="2.78" length="3.30" width="4.00" shape="89.60,106.40 89.60,108.40 91.60,110.40 93.60,110.40 93.49,109.18 93.16,108.18 92.60,107.40 91.82,106.84 90.82,106.51"/>
    </edge>
    <edge id=":C_w1" function="walkingarea">
        <lane id=":C_w1_0" index="0" allow="pedestrian" speed="2.78" length="3.30" width="4.00" shape="106.40,110.40 108.40,110.40 110.40,108.40 110.40,106.40 109.18,106.51 108.18,106.84 107.40,107.40 106.84,108.18 106.51,109.18"/>
    </edge>
    <edge id=":C_w2" function="walkingarea">
        <lane id=":C_w2_0" index="0" allow="pedestrian" speed="2.78" length="3.30" width="4.00" shape="110.40,93.60 110.40,91.60 108.40,89.60 106.40,89.60 106.51,90.82 106.84,91.82 107.40,92.60 108.18,93.16 109.18,93.49"/>
    </edge>
    <edge id=":C_w3" function="walkingarea">
        <lane id=":C_w3_0" index="0" allow="pedestrian" speed="2.78" length="3.30" width="4.00" shape="93.60,89.60 91.60,89.60 89.60,91.60 89.60,93.60 90.82,93.49 91.82,93.16 92.60,92.60 93.16,91.82 93.49,90.82"/>
    </edge>
    <edge id=":E_0" function="internal">
        <lane id=":E_0_0" index="0" disallow="pedestrian" speed="3.65" length="4.67" shape="200.00,98.40 201.20,99.20 201.60,100.00 201.20,100.80 200.00,101.60"/>
    </edge>
    <edge id=":E_w0" function="walkingarea">
        <lane id=":E_w0_0" index="0" allow="pedestrian" speed="2.78" length="14.80" width="2.00" shape="200.00,106.40 200.00,108.40 200.00,91.60 200.00,93.60"/>
    </edge>
    <edge id=":N_0" function="internal">
        <lane id=":N_0_0" index="0" disallow="pedestrian" speed="3.65" length="4.67" shape="101.60,200.00 100.80,201.20 100.00,201.60 99.20,201.20 98.40,200.00"/>
    </edge>
    <edge id=":N_w0" function="walkingarea">
        <lane id=":N_w0_0" index="0" allow="pedestrian" speed="2.78" length="14.80" width="2.00" shape="93.60,200.00 91.60,200.00 108.40,200.00 106.40,200.00"/>
    </edge>
    <edge id=":S_0" function="internal">
        <lane id=":S_0_0" index="0" disallow="pedestrian" speed="3.65" length="4.67" shape="98.40,0.00 99.20,-1.20 100.00,-1.60 100.80,-1.20 101.60,-0.00"/>
    </edge>
    <edge id=":S_w0" function="walkingarea">
        <lane id=":S_w0_0" index="0" allow="pedestrian" speed="2.78" length="14.80" width="2.00" shape="106.40,-0.00 108.40,-0.00 91.60,0.00 93.60,0.00"/>
    </edge>
    <edge id=":W_0" function="internal">
        <lane id=":W_0_0" index="0" disallow="pedestrian" speed="3.65" length="4.67" shape="0.00,101.60 -1.20,100.80 -1.60,100.00 -1.20,99.20 -0.00,98.40"/>
    </edge>
    <edge id=":W_w0" function="walkingarea">
        <lane id=":W_w0_0" index="0" allow="pedestrian" speed="2.78" length="14.80" width="2.00" shape="-0.00,93.60 -0.00,91.60 0.00,108.40 0.00,106.40"/>
    </edge>

    <edge id="CE" from="C" to="E" priority="-1">
        <lane id="CE_0" index="0" allow="pedestrian" speed="13.89" length="89.60" width="2.00" shape="110.40,92.60 200.00,92.60"/>
        <lane id="CE_1" index="1" disallow="pedestrian" speed="13.89" length="89.60" shape="110.40,95.20 200.00,95.20"/>
        <lane id="CE_2" index="2" disallow="pedestrian" speed="13.89" length="89.60" shape="110.40,98.40 200.00,98.40"/>
    </edge>
    <edge id="CN" from="C" to="N" priority="-1">
        <lane id="CN_0" index="0" allow="pedestrian" speed="13.89" length="89.60" width="2.00" shape="107.40,110.40 107.40,200.00"/>
        <lane id="CN_1" index="1" disallow="pedestrian" speed="13.89" length="89.60" shape="104.80,110.40 104.80,200.00"/>
        <lane id="CN_2" index="2" disallow="pedestrian" speed="13.89" length="89.60" shape="101.60,110.40 101.60,200.00"/>
    </edge>
    <edge id="CS" from="C" to="S" priority="-1">
        <lane id="CS_0" index="0" allow="pedestrian" speed="13.89" length="89.60" width="2.00" shape="92.60,89.60 92.60,0.00"/>
        <lane id="CS_1" index="1" disallow="pedestrian" speed="13.89" length="89.60" shape="95.20,89.60 95.20,0.00"/>
        <lane id="CS_2" index="2" disallow="pedestrian" speed="13.89" length="89.60" shape="98.40,89.60 98.40,0.00"/>
    </edge>
    <edge id="CW" from="C" to="W" priority="-1">
        <lane id="CW_0" index="0" allow="pedestrian" speed="13.89" length="89.60" width="2.00" shape="89.60,107.40 0.00,107.40"/>
        <lane id="CW_1" index="1" disallow="pedestrian" speed="13.89" length="89.60" shape="89.60,104.80 0.00,104.80"/>
        <lane id="CW_2" index="2" disallow="pedestrian" speed="13.89" length="89.60" shape="89.60,101.60 0.00,101.60"/>
    </edge>
    <edge id="EC" from="E" to="C" priority="-1">
        <lane id="EC_0" index="0" allow="pedestrian" speed="13.89" length="89.60" width="2.00" shape="200.00,107.40 110.40,107.40"/>
        <lane id="EC_1" index="1" disallow="pedestrian" speed="13.89" length="89.60" shape="200.00,104.80 110.40,104.80"/>
        <lane id="EC_2" index="2" disallow="pedestrian" speed="13.89" length="89.60" shape="200.00,101.60 110.40,101.60"/>
    </edge>
    <edge id="NC" from="N" to="C" priority="-1">
        <lane id="NC_0" index="0" allow="pedestrian" speed="13.89" length="89.60" width="2.00" shape="92.60,200.00 92.60,110.40"/>
        <lane id="NC_1" index="1" disallow="pedestrian" speed="13.89" length="89.60" shape="95.20,200.00 95.20,110.40"/>
        <lane id="NC_2" index="2" disallow="pedestrian" speed="13.89" length="89.60" shape="98.40,200.00 98.40,110.40"/>
    </edge>
    <edge id="SC" from="S" to="C" priority="-1">
        <lane id="SC_0" index="0" allow="pedestrian" speed="13.89" length="89.60" width="2.00" shape="107.40,-0.00 107.40,89.60"/>
        <lane id="SC_1" index="1" disallow="pedestrian" speed="13.89" length="89.60" shape="104.80,-0.00 104.80,89.60"/>
        <lane id="SC_2" index="2" disallow="pedestrian" speed="13.89" length="89.60" shape="101.60,-0.00 101.60,89.60"/>
    </edge>
    <edge id="WC" from="W" to="C" priority="-1">
        <lane id="WC_0" index="0" allow="pedestrian" speed="13.89" length="89.60" width="2.00" shape="-0.00,92.60 89.60,92.60"/>
        <lane id="WC_1" index="1" disallow="pedestrian" speed="13.89" length="89.60" shape="-0.00,95.20 89.60,95.20"/>
        <lane id="WC_2" index="2" disallow="pedestrian" speed="13.89" length="89.60" shape="-0.00,98.40 89.60,98.40"/>
    </edge>

    <tlLogic id="C" type="static" programID="0" offset="0">
        <phase duration="37" state="gGGggrrrrrgGGggrrrrrrGrG"/>
        <phase duration="5"  state="gGGggrrrrrgGGggrrrrrrrrr"/>
        <phase duration="3"  state="yyyyyrrrrryyyyyrrrrrrrrr"/>
        <phase duration="37" state="rrrrrgGGggrrrrrgGGggGrGr"/>
        <phase duration="5"  state="rrrrrgGGggrrrrrgGGggrrrr"/>
        <phase duration="3"  state="rrrrryyyyyrrrrryyyyyrrrr"/>
    </tlLogic>

    <junction id="C" type="traffic_light" x="100.00" y="100.00" incLanes="NC_0 NC_1 NC_2 EC_0 EC_1 EC_2 SC_0 SC_1 SC_2 WC_0 WC_1 WC_2 :C_w1_0 :C_w2_0 :C_w3_0 :C_w0_0" intLanes=":C_20_0 :C_1_0 :C_1_1 :C_21_0 :C_22_0 :C_23_0 :C_6_0 :C_6_1 :C_24_0 :C_25_0 :C_26_0 :C_11_0 :C_11_1 :C_27_0 :C_28_0 :C_29_0 :C_16_0 :C_16_1 :C_30_0 :C_31_0 :C_c0_0 :C_c1_0 :C_c2_0 :C_c3_0" shape="91.60,110.40 108.40,110.40 108.62,109.29 108.90,108.90 109.29,108.62 109.79,108.46 110.40,108.40 110.40,91.60 109.29,91.38 108.90,91.10 108.62,90.71 108.46,90.21 108.40,89.60 91.60,89.60 91.38,90.71 91.10,91.10 90.71,91.38 90.21,91.54 89.60,91.60 89.60,108.40 90.71,108.62 91.10,108.90 91.38,109.29 91.54,109.79">
        <request index="0"  response="100100000000000000000000" foes="100100000000000011000000" cont="1"/>
        <request index="1"  response="010101001000000000000000" foes="010101111110000111000000" cont="0"/>
        <request index="2"  response="010101000000000100000000" foes="010101111110000111000000" cont="0"/>
        <request index="3"  response="001101000001100100000000" foes="001101110001101111000000" cont="1"/>
        <request index="4"  response="000101000001100000000000" foes="000101000001100000000000" cont="1"/>
        <request index="5"  response="001100000001100000000000" foes="001100000001100000000000" cont="1"/>
        <request index="6"  response="101000000011100000001111" foes="101011000011100000001111" cont="0"/>
        <request index="7"  response="101000000011100000001111" foes="101011000011100000001111" cont="0"/>
        <request index="8"  response="011000110011100000001110" foes="011000110111100000001110" cont="1"/>
        <request index="9"  response="001000110000000000001000" foes="001000110000000000001000" cont="1"/>
        <request index="10" response="011000000000000000000000" foes="011000110000000000000000" cont="1"/>
        <request index="11" response="010100000000000100100000" foes="010101110000000111111000" cont="0"/>
        <request index="12" response="010101000000000100000000" foes="010101110000000111111000" cont="0"/>
        <request index="13" response="110001000000000100000110" foes="110011110000000111000110" cont="1"/>
        <request index="14" response="010000000000000100000110" foes="010000000000000100000110" cont="1"/>
        <request index="15" response="110000000000000000000110" foes="110000000000000000000110" cont="1"/>
        <request index="16" response="101000000011110000001110" foes="101000000011111100001110" cont="0"/>
        <request index="17" response="101000000011110000001110" foes="101000000011111100001110" cont="0"/>
        <request index="18" response="100100000011100011001110" foes="100100000011100011011110" cont="1"/>
        <request index="19" response="100000000010000011000000" foes="100000000010000011000000" cont="1"/>
        <request index="20" response="000000000000000000000000" foes="000001000001100000111111" cont="0"/>
        <request index="21" response="000000000000000000000000" foes="000000110000011111101000" cont="0"/>
        <request index="22" response="000000000000000000000000" foes="000000001111110100000110" cont="0"/>
        <request index="23" response="000000000000000000000000" foes="000011111010000011000001" cont="0"/>
    </junction>
    <junction id="E" type="priority" x="200.00" y="100.00" incLanes="CE_0 CE_1 CE_2" intLanes=":E_0_0" shape="200.00,100.00 200.00,91.60 200.00,100.00">
        <request index="0" response="0" foes="0" cont="0"/>
    </junction>
    <junction id="N" type="priority" x="100.00" y="200.00" incLanes="CN_0 CN_1 CN_2" intLanes=":N_0_0" shape="100.00,200.00 108.40,200.00 100.00,200.00">
        <request index="0" response="0" foes="0" cont="0"/>
    </junction>
    <junction id="S" type="priority" x="100.00" y="0.00" incLanes="CS_0 CS_1 CS_2" intLanes=":S_0_0" shape="100.00,-0.00 91.60,-0.00 100.00,-0.00">
        <request index="0" response="0" foes="0" cont="0"/>
    </junction>
    <junction id="W" type="priority" x="0.00" y="100.00" incLanes="CW_0 CW_1 CW_2" intLanes=":W_0_0" shape="-0.00,100.00 -0.00,108.40 -0.00,100.00">
        <request index="0" response="0" foes="0" cont="0"/>
    </junction>

    <junction id=":C_20_0" type="internal" x="93.60" y="106.08" incLanes=":C_0_0" intLanes=":C_6_0 :C_6_1 :C_13_0 :C_19_0 :C_c0_0 :C_c3_0"/>
    <junction id=":C_21_0" type="internal" x="99.11" y="105.44" incLanes=":C_3_0 SC_1 SC_2" intLanes=":C_6_0 :C_6_1 :C_8_0 :C_9_0 :C_10_0 :C_11_0 :C_11_1 :C_16_0 :C_16_1 :C_18_0 :C_c0_0 :C_c1_0"/>
    <junction id=":C_22_0" type="internal" x="99.20" y="109.20" incLanes=":C_4_0 EC_1 SC_1 SC_2 WC_2" intLanes=":C_5_0 :C_11_0 :C_11_1 :C_18_0 :C_c0_0 :C_c0_0"/>
    <junction id=":C_23_0" type="internal" x="106.08" y="106.40" incLanes=":C_5_0" intLanes=":C_4_0 :C_11_0 :C_11_1 :C_18_0 :C_c0_0 :C_c1_0"/>
    <junction id=":C_24_0" type="internal" x="105.44" y="100.89" incLanes=":C_8_0 WC_1 WC_2" intLanes=":C_1_0 :C_1_1 :C_3_0 :C_11_0 :C_11_1 :C_13_0 :C_14_0 :C_15_0 :C_16_0 :C_16_1 :C_c1_0 :C_c2_0"/>
    <junction id=":C_25_0" type="internal" x="109.20" y="100.80" incLanes=":C_9_0 NC_2 SC_1 WC_1 WC_2" intLanes=":C_3_0 :C_10_0 :C_16_0 :C_16_1 :C_c1_0 :C_c1_0"/>
    <junction id=":C_26_0" type="internal" x="106.40" y="93.92" incLanes=":C_10_0" intLanes=":C_3_0 :C_9_0 :C_16_0 :C_16_1 :C_c1_0 :C_c2_0"/>
    <junction id=":C_27_0" type="internal" x="100.89" y="94.56" incLanes=":C_13_0 NC_1 NC_2" intLanes=":C_0_0 :C_1_0 :C_1_1 :C_6_0 :C_6_1 :C_8_0 :C_16_0 :C_16_1 :C_18_0 :C_19_0 :C_c2_0 :C_c3_0"/>
    <junction id=":C_28_0" type="internal" x="100.80" y="90.80" incLanes=":C_14_0 EC_2 NC_1 NC_2 WC_1" intLanes=":C_1_0 :C_1_1 :C_8_0 :C_15_0 :C_c2_0 :C_c2_0"/>
    <junction id=":C_29_0" type="internal" x="93.92" y="93.60" incLanes=":C_15_0" intLanes=":C_1_0 :C_1_1 :C_8_0 :C_14_0 :C_c2_0 :C_c3_0"/>
    <junction id=":C_30_0" type="internal" x="94.56" y="99.11" incLanes=":C_18_0 EC_1 EC_2" intLanes=":C_1_0 :C_1_1 :C_3_0 :C_4_0 :C_5_0 :C_6_0 :C_6_1 :C_11_0 :C_11_1 :C_13_0 :C_c0_0 :C_c3_0"/>
    <junction id=":C_31_0" type="internal" x="90.80" y="99.20" incLanes=":C_19_0 EC_1 EC_2 NC_1 SC_2" intLanes=":C_0_0 :C_6_0 :C_6_1 :C_13_0 :C_c3_0 :C_c3_0"/>

    <connection from="CE" to="EC" fromLane="2" toLane="2" via=":E_0_0" dir="t" state="M"/>
    <connection from="CN" to="NC" fromLane="2" toLane="2" via=":N_0_0" dir="t" state="M"/>
    <connection from="CS" to="SC" fromLane="2" toLane="2" via=":S_0_0" dir="t" state="M"/>
    <connection from="CW" to="WC" fromLane="2" toLane="2" via=":W_0_0" dir="t" state="M"/>
    <connection from="EC" to="CN" fromLane="1" toLane="1" via=":C_5_0" tl="C" linkIndex="5" dir="r" state="o"/>
    <connection from="EC" to="CW" fromLane="1" toLane="1" via=":C_6_0" tl="C" linkIndex="6" dir="s" state="o"/>
    <connection from="EC" to="CW" fromLane="2" toLane="2" via=":C_6_1" tl="C" linkIndex="7" dir="s" state="o"/>
    <connection from="EC" to="CS" fromLane="2" toLane="2" via=":C_8_0" tl="C" linkIndex="8" dir="l" state="o"/>
    <connection from="EC" to="CE" fromLane="2" toLane="2" via=":C_9_0" tl="C" linkIndex="9" dir="t" state="o"/>
    <connection from="NC" to="CW" fromLane="1" toLane="1" via=":C_0_0" tl="C" linkIndex="0" dir="r" state="o"/>
    <connection from="NC" to="CS" fromLane="1" toLane="1" via=":C_1_0" tl="C" linkIndex="1" dir="s" state="o"/>
    <connection from="NC" to="CS" fromLane="2" toLane="2" via=":C_1_1" tl="C" linkIndex="2" dir="s" state="o"/>
    <connection from="NC" to="CE" fromLane="2" toLane="2" via=":C_3_0" tl="C" linkIndex="3" dir="l" state="o"/>
    <connection from="NC" to="CN" fromLane="2" toLane="2" via=":C_4_0" tl="C" linkIndex="4" dir="t" state="o"/>
    <connection from="SC" to="CE" fromLane="1" toLane="1" via=":C_10_0" tl="C" linkIndex="10" dir="r" state="o"/>
    <connection from="SC" to="CN" fromLane="1" toLane="1" via=":C_11_0" tl="C" linkIndex="11" dir="s" state="o"/>
    <connection from="SC" to="CN" fromLane="2" toLane="2" via=":C_11_1" tl="C" linkIndex="12" dir="s" state="o"/>
    <connection from="SC" to="CW" fromLane="2" toLane="2" via=":C_13_0" tl="C" linkIndex="13" dir="l" state="o"/>
    <connection from="SC" to="CS" fromLane="2" toLane="2" via=":C_14_0" tl="C" linkIndex="14" dir="t" state="o"/>
    <connection from="WC" to="CS" fromLane="1" toLane="1" via=":C_15_0" tl="C" linkIndex="15" dir="r" state="o"/>
    <connection from="WC" to="CE" fromLane="1" toLane="1" via=":C_16_0" tl="C" linkIndex="16" dir="s" state="o"/>
    <connection from="WC" to="CE" fromLane="2" toLane="2" via=":C_16_1" tl="C" linkIndex="17" dir="s" state="o"/>
    <connection from="WC" to="CN" fromLane="2" toLane="2" via=":C_18_0" tl="C" linkIndex="18" dir="l" state="o"/>
    <connection from="WC" to="CW" fromLane="2" toLane="2" via=":C_19_0" tl="C" linkIndex="19" dir="t" state="o"/>

    <connection from=":C_0" to="CW" fromLane="0" toLane="1" via=":C_20_0" dir="r" state="m"/>
    <connection from=":C_20" to="CW" fromLane="0" toLane="1" dir="r" state="m"/>
    <connection from=":C_1" to="CS" fromLane="0" toLane="1" dir="s" state="M"/>
    <connection from=":C_1" to="CS" fromLane="1" toLane="2" dir="s" state="M"/>
    <connection from=":C_3" to="CE" fromLane="0" toLane="2" via=":C_21_0" dir="l" state="m"/>
    <connection from=":C_21" to="CE" fromLane="0" toLane="2" dir="l" state="m"/>
    <connection from=":C_4" to="CN" fromLane="0" toLane="2" via=":C_22_0" dir="t" state="m"/>
    <connection from=":C_22" to="CN" fromLane="0" toLane="2" dir="t" state="m"/>
    <connection from=":C_5" to="CN" fromLane="0" toLane="1" via=":C_23_0" dir="r" state="m"/>
    <connection from=":C_23" to="CN" fromLane="0" toLane="1" dir="r" state="m"/>
    <connection from=":C_6" to="CW" fromLane="0" toLane="1" dir="s" state="M"/>
    <connection from=":C_6" to="CW" fromLane="1" toLane="2" dir="s" state="M"/>
    <connection from=":C_8" to="CS" fromLane="0" toLane="2" via=":C_24_0" dir="l" state="m"/>
    <connection from=":C_24" to="CS" fromLane="0" toLane="2" dir="l" state="m"/>
    <connection from=":C_9" to="CE" fromLane="0" toLane="2" via=":C_25_0" dir="t" state="m"/>
    <connection from=":C_25" to="CE" fromLane="0" toLane="2" dir="t" state="m"/>
    <connection from=":C_10" to="CE" fromLane="0" toLane="1" via=":C_26_0" dir="r" state="m"/>
    <connection from=":C_26" to="CE" fromLane="0" toLane="1" dir="r" state="m"/>
    <connection from=":C_11" to="CN" fromLane="0" toLane="1" dir="s" state="M"/>
    <connection from=":C_11" to="CN" fromLane="1" toLane="2" dir="s" state="M"/>
    <connection from=":C_13" to="CW" fromLane="0" toLane="2" via=":C_27_0" dir="l" state="m"/>
    <connection from=":C_27" to="CW" fromLane="0" toLane="2" dir="l" state="m"/>
    <connection from=":C_14" to="CS" fromLane="0" toLane="2" via=":C_28_0" dir="t" state="m"/>
    <connection from=":C_28" to="CS" fromLane="0" toLane="2" dir="t" state="m"/>
    <connection from=":C_15" to="CS" fromLane="0" toLane="1" via=":C_29_0" dir="r" state="m"/>
    <connection from=":C_29" to="CS" fromLane="0" toLane="1" dir="r" state="m"/>
    <connection from=":C_16" to="CE" fromLane="0" toLane="1" dir="s" state="M"/>
    <connection from=":C_16" to="CE" fromLane="1" toLane="2" dir="s" state="M"/>
    <connection from=":C_18" to="CN" fromLane="0" toLane="2" via=":C_30_0" dir="l" state="m"/>
    <connection from=":C_30" to="CN" fromLane="0" toLane="2" dir="l" state="m"/>
    <connection from=":C_19" to="CW" fromLane="0" toLane="2" via=":C_31_0" dir="t" state="m"/>
    <connection from=":C_31" to="CW" fromLane="0" toLane="2" dir="t" state="m"/>
    <connection from=":E_0" to="EC" fromLane="0" toLane="2" dir="t" state="M"/>
    <connection from=":N_0" to="NC" fromLane="0" toLane="2" dir="t" state="M"/>
    <connection from=":S_0" to="SC" fromLane="0" toLane="2" dir="t" state="M"/>
    <connection from=":W_0" to="WC" fromLane="0" toLane="2" dir="t" state="M"/>

    <connection from=":C_c0" to=":C_w0" fromLane="0" toLane="0" dir="s" state="M"/>
    <connection from=":C_c1" to=":C_w1" fromLane="0" toLane="0" dir="s" state="M"/>
    <connection from=":C_c2" to=":C_w2" fromLane="0" toLane="0" dir="s" state="M"/>
    <connection from=":C_c3" to=":C_w3" fromLane="0" toLane="0" dir="s" state="M"/>
    <connection from=":C_w0" to=":C_c3" fromLane="0" toLane="0" tl="C" linkIndex="23" dir="s" state="M"/>
    <connection from=":C_w0" to="CW" fromLane="0" toLane="0" dir="s" state="M"/>
    <connection from="NC" to=":C_w0" fromLane="0" toLane="0" dir="s" state="M"/>
    <connection from=":C_w1" to=":C_c0" fromLane="0" toLane="0" tl="C" linkIndex="20" dir="s" state="M"/>
    <connection from=":C_w1" to="CN" fromLane="0" toLane="0" dir="s" state="M"/>
    <connection from="EC" to=":C_w1" fromLane="0" toLane="0" dir="s" state="M"/>
    <connection from=":C_w2" to=":C_c1" fromLane="0" toLane="0" tl="C" linkIndex="21" dir="s" state="M"/>
    <connection from=":C_w2" to="CE" fromLane="0" toLane="0" dir="s" state="M"/>
    <connection from="SC" to=":C_w2" fromLane="0" toLane="0" dir="s" state="M"/>
    <connection from=":C_w3" to=":C_c2" fromLane="0" toLane="0" tl="C" linkIndex="22" dir="s" state="M"/>
    <connection from=":C_w3" to="CS" fromLane="0" toLane="0" dir="s" state="M"/>
    <connection from="WC" to=":C_w3" fromLane="0" toLane="0" dir="s" state="M"/>
    <connection from=":E_w0" to="EC" fromLane="0" toLane="0" dir="s" state="M"/>
    <connection from="CE" to=":E_w0" fromLane="0" toLane="0" dir="s" state="M"/>
    <connection from=":N_w0" to="NC" fromLane="0" toLane="0" dir="s" state="M"/>
    <connection from="CN" to=":N_w0" fromLane="0" toLane="0" dir="s" state="M"/>
    <connection from=":S_w0" to="SC" fromLane="0" toLane="0" dir="s" state="M"/>
    <connection from="CS" to=":S_w0" fromLane="0" toLane="0" dir="s" state="M"/>
    <connection from=":W_w0" to="WC" fromLane="0" toLane="0" dir="s" state="M"/>
    <connection from="CW" to=":W_w0" fromLane="0" toLane="0" dir="s" state="M"/>
</net>
