<?xml version="1.0" encoding="UTF-8"?>
<edges>
    <!-- North-South -->
    <edge id="NC" from="N" to="C" numLanes="2" speed="13.89"/>
    <edge id="CN" from="C" to="N" numLanes="2" speed="13.89"/>
    <edge id="SC" from="S" to="C" numLanes="2" speed="13.89"/>
    <edge id="CS" from="C" to="S" numLanes="2" speed="13.89"/>

    <!-- East-West -->
    <edge id="EC" from="E" to="C" numLanes="2" speed="13.89"/>
    <edge id="CE" from="C" to="E" numLanes="2" speed="13.89"/>
    <edge id="WC" from="W" to="C" numLanes="2" speed="13.89"/>
    <edge id="CW" from="C" to="W" numLanes="2" speed="13.89"/>
</edges>
