<?xml version="1.0" encoding="UTF-8"?>
<configuration>
    <input>
        <net-file value="intersection.net.xml"/>
        <route-files value="routes.rou.xml"/>
    </input>
    <time>
        <begin value="0"/>
        <end value="120"/>
    </time>
    <processing>
        <pedestrian.model value="striping"/>
    </processing>
    <gui_only>
        <gui-settings-file value="view.xml"/>
    </gui_only>
</configuration>
